*KEYWORD
$> Include file: /home/ag/implicit/04_toyota_yaris/roof_crush_impactor_03_pos.k
$> (Used by master file: /home/ag/implicit/04_toyota_yaris/34_roof_crush_dynamic_bnd/000_yaris_dynamisch_roof_crush_02.k)
$> 
$> Primer13.0 created on: Tue May  3 13:08:08 2016
$> LS-DYNA version: R7.1
$> 
$> end_saved_comments
$
$
$
$ ====================
$ MAT (Material) cards
$ ====================
$
*MAT_RIGID
         1    7.6E-9     200.0       0.3       0.0       0.0       0.0          
      -1.0         1    011111
         1       0.0       0.0       0.0       0.0       0.0
$
$
$
$ =============
$ SECTION cards
$ =============
$
*SECTION_SHELL
         1        16       0.0         3       0.0       0.0         0         0
       3.0       3.0       3.0       3.0       0.0       0.0       0.0         0
$
$
$
$ ==========
$ PART cards
$ ==========
$
*PART_CONTACT

         1         1         1         0         0         0         0         0
       0.0       0.0       0.0       0.0       3.0       0.0       0.0
$
*PART_CONTACT
impaktor
         2         1         1         0         0         0         0         0
       0.0       0.0       0.0       0.0       3.0       0.0       0.0
$
$
$
$ ==========
$ NODE cards
$ ==========
$
*NODE
       1      -2577.0615       577.29022       1462.7499       0       0
       2      -1666.9132       884.69910       1220.4674       0       0
       3      -1676.9244       885.06921       1221.2612       0       0
       4      -1686.9355       885.43933       1222.0551       0       0
       5      -1696.9469       885.80957       1222.8488       0       0
       6      -1706.9580       886.17969       1223.6427       0       0
       7      -1716.9692       886.54993       1224.4364       0       0
       8      -1726.9803       886.92004       1225.2302       0       0
       9      -1736.9916       887.29016       1226.0240       0       0
      10      -1747.0028       887.66028       1226.8177       0       0
      11      -1757.0140       888.03052       1227.6117       0       0
      12      -1767.0253       888.40063       1228.4054       0       0
      13      -1777.0365       888.77087       1229.1993       0       0
      14      -1787.0477       889.14099       1229.9930       0       0
      15      -1797.0590       889.51111       1230.7869       0       0
      16      -1807.0702       889.88123       1231.5807       0       0
      17      -1817.0813       890.25146       1232.3744       0       0
      18      -1827.0925       890.62158       1233.1683       0       0
      19      -1837.1038       890.99170       1233.9620       0       0
      20      -1847.1150       891.36194       1234.7560       0       0
$ ... 14073 like lines cut
$
$
$ =============
$ ELEMENT cards
$ =============
$
*ELEMENT_SHELL
       1       1       2       3     186     185
       2       1       3       4     187     186
       3       1       4       5     188     187
       4       1       5       6     189     188
       5       1       6       7     190     189
       6       1       7       8     191     190
       7       1       8       9     192     191
       8       1       9      10     193     192
       9       1      10      11     194     193
      10       1      11      12     195     194
      11       1      12      13     196     195
      12       1      13      14     197     196
      13       1      14      15     198     197
      14       1      15      16     199     198
      15       1      16      17     200     199
      16       1      17      18     201     200
      17       1      18      19     202     201
      18       1      19      20     203     202
      19       1      20      21     204     203
      20       1      21      22     205     204
$ ... 13820 like lines cut
$
$
$ ============
$ DEFINE cards
$ ============
$
*DEFINE_COORDINATE_NODES
         1         1      7047      7230         0         X
$
$
$
$ =================
$ CONSTRAINED cards
$ =================
$
*CONSTRAINED_RIGID_BODIES
         1         2         0
$
*END
